test/test_files/validation_tests/case6468rte_res.m
function mpc = case6468rte_res
%CASE6468RTE_RES

%% MATPOWER Case Format : Version 2
mpc.version = '2';

%%-----  Power Flow Data  -----%%
%% system MVA base
mpc.baseMVA = 100;

%% bus data
%	bus_i	type	Pd	Qd	Gs	Bs	area	Vm	Va	baseKV	zone	Vmax	Vmin
mpc.bus = [
	1	1	0	0	0	0	1	0.982360206	-16.9894983	45	1	1	0.888889;
	2	1	0	0	0	0	1	1.03357343	-12.614413	63	1	1.06349	0.936508;
	3	1	11.7	-1.2	0	0	1	0.982847446	-9.53888901	63	1	1.07937	0.952381;
	4	1	33.8	-8.2	0	0	1	1.06611868	-3.89928029	90	1	1.08889	0.933333;
	5	1	11	-0.9	0	0	1	0.982872106	-29.889971	63	1	1.06349	0.952381;
	6	1	13	4.3	0	0	1	1.03222932	-15.5415629	63	1	1.07937	0.920635;
	7	1	1	-0.2	0	0	1	1.05987034	-17.5702184	63	1	1.07937	0.920635;
	8	1	0.4	-4.4	0	0	1	1.06971347	-0.189992276	225	1	1.08889	0.888889;
	9	1	16.9	0	0	0	1	1.03236687	-21.5101505	63	1	1.06349	0.936508;
	10	1	0	0	0	0	1	1.06578606	-3.5322562	90	1	1.07778	0.922222;
	11	1	20	-3.1	0	0	1	1.06578583	-3.53225372	90	1	1.07778	0.922222;
	12	1	0	0	0	0	1	0.991391888	3.71055094	63	1	1.07937	0.952381;
	13	1	0	0	0	0	1	1.05441486	-2.34658313	380	1	1.10263	1.05084;
	14	1	37	3.6	0	0	1	1.04768721	-8.23109307	90	1	1.07778	0.977778;
	15	1	0	0	0	0	1	1.02545239	-21.0622356	63	1	1.07937	0.920635;
	16	1	10.3	1.5	0	0	1	1.04945774	-23.5550053	63	1	1.07937	0.920635;
	17	1	11.2	-0.6	0	0	1	1.04996414	-15.5820038	90	1	1.06667	0.977778;
	18	1	0	0	0	0	1	0.921553908	-10.9877434	45	1	1	0.888889;
	19	1	1	0	0	0	1	1.02569448	-12.7402618	63	1	1.06349	0.936508;
	20	1	2.3	-18.3	0	0	1	0.922386207	-11.0189947	45	1	1	0.888889;
	21	1	6.5	-1.9	0	0	1	1.04121453	-9.89899911	90	1	1.06667	0.977778;
	22	1	15.2	1.4	0	0	1	1.00195621	-4.56748644	63	1	1.07937	0.952381;
	23	1	29.1	4.6	0	0	1	1.00665706	-17.7179479	63	1	1.06349	0.936508;
	24	1	9.7	-2.8	0	0	1	1.06346895	-2.59925509	90	1	1.11111	0.955556;
	25	1	46.5	-6.1	0	0	1	1.09135684	-0.996926458	90	1	1.1	0.944444;
	26	1	20.5	4.7	0	0	1	1.02477313	-7.88289335	90	1	1.06667	0.977778;
	27	1	0	0	0	0	1	1.06682062	-4.1168893	225	1	1.08444	1.00444;
	28	1	0.4	0.9	0	0	1	1.02834603	-13.3038789	63	1	1.07937	0.952381;
	29	1	52.7	1.8	0	0	1	1.01167745	-22.7296867	63	1	1.06349	0.968254;
	30	1	29.8	-1.9	0	0	1	1.06365967	-3.58342606	90	1	1.08889	0.933333;
	31	1	0	0	0	0	1	1.02844033	-14.5689364	63	1	1.06349	0.936508;
	32	1	0	0	0	0	1	1.02538054	-9.48599249	150	1	1.10667	0.9;
	33	1	0	0	0	0	1	1.03986884	-11.0968748	225	1	1.08889	0.933333;
	34	1	0	0	0	0	1	1.03410542	-11.3218244	225	1	1.08889	0.933333;
	35	1	0	0	0	0	1	1.05454532	-7.73187964	380	1	1.10526	1.03947;
	36	1	0	0	0	0	1	1.05846782	-6.42626214	380	1	1.10526	1.03947;
	37	1	2.3	4.4	0	0	1	1.02738946	-17.2510766	63	1	1.07937	0.920635;
	38	1	7	-1	0	0	1	1.06103226	-3.84091011	63	1	1.09524	0.936508;
	39	1	35	-6.8	0	0	1	1.01594025	-16.3521697	90	1	1.07778	0.977778;
	40	1	31.7	0.5	0	0	1	1.04084682	-6.83631155	90	1	1.07778	0.977778;
	41	1	0	0	0	0	1	1.0806985	-5.40919479	225	1	1.09194	1.00444;
	42	1	0	0	0	0	1	1.0954297	7.8805398	63	1	1.13061	0.952381;
	43	1	3.4	2.8	0	0	1	1.05270632	-4.48707882	90	1	1.07778	0.977778;
	44	1	12.4	0	0	0	1	1.00594055	-29.8166633	63	1	1.06349	0.952381;
	45	1	3	2.1	0	0	1	1.01692587	-12.6313247	90	1	1.06667	0.977778;
	46	1	0	0	0	0	1	1.01002735	-14.4775196	63	1	1.06349	0.936508;
	47	2	0	0	0	0	1	1.00922113	-14.4682768	63	1	1.06349	0.936508;
	48	1	34	1.3	0	0	1	1.04957921	-3.89966144	90	1	1.07778	0.922222;
	49	1	6.9	-2.5	0	0	1	1.03425803	-10.7995579	63	1	1.06349	0.936508;
	50	1	0	0	0	0	1	1.06027791	-16.7255531	63	1	1.07436	0.936508;
	51	1	0	0	0	0	1	1.04603193	-12.4097896	225	1	1.08889	0.933333;
	52	1	5.8	2.5	0	0	1	1.02216406	-14.3593939	90	1	1.06667	0.977778;
	53	1	0.2	-0.3	0	0	1	1.02177242	-5.58502749	63	1	1.04762	0.952381;
	54	1	0.9	-0.8	0	0	1	1.04651464	-5.30982081	90	1	1.06667	0.977778;
	55	1	30.1	5.4	0	0	1	1.06911735	-5.98827205	225	1	1.08889	1.00444;
	56	1	42.2	6.3	0	0	1	1.05123653	-4.76384437	225	1	1.08889	1.00444;
	57	2	0	0	0	0	1	1.059	-18.944119	63	1	1.07937	0.920635;
	58	1	107.6	28.8	0	0	1	1.06892858	-5.99979694	225	1	1.08889	1.00444;
	59	1	5.2	1.4	0	0	1	0.989827696	-7.33147296	63	1	1.07937	0.952381;
	60	1	0	0	0	0	1	0.99894328	-1.88401737	63	1	1.07937	0.952381;
	61	1	29.6	5.1	0	0	1	0.997465934	-3.77313052	63	1	1.07937	0.952381;
	62	1	0	0	0	0	1	0.999694909	-1.59883596	63	1	1.07937	0.952381;
	63	1	12.8	2	0	0	1	0.993826426	4.48787966	63	1	1.07937	0.952381;
	64	1	47.2	-0.7	0	0	1	1.0705947	1.92010727	225	1	1.08889	0.888889;
	65	1	10	2.9	0	0	1	1.00694601	-4.2085509	63	1	1.07937	0.952381;
	66	1	11.1	-9.3	0	0	1	1.04900051	-17.2629804	63	1	1.06349	0.936508;
	67	1	0	0	0	0	1	1.03746812	-8.39702618	63	1	1.07937	0.920635;
	68	1	41.1	-6.8	0	0	1	1.01936001	-13.3655686	63	1	1.06349	0.936508;
	69	1	14.4	-3.2	0	0	1	1.01147201	-33.718741	63	1	1.06349	0.952381;
	70	1	8.7	0.6	0	0	1	1.00572368	3.97053159	63	1	1.07937	0.952381;
	71	1	55.8	10.7	0	0	1	1.0267104	-6.4128419	63	1	1.04762	0.952381;
	72	1	0	0	0	0	1	1.0865556	0.714830726	225	1	1.08889	1.00444;
	73	1	0	0	0	0	1	1.08655582	0.715209144	225	1	1.08889	1.00444;
	74	1	37.1	-8.7	0	0	1	1.07105685	1.98983453	225	1	1.08889	0.888889;
	75	1	19.3	1.4	0	0	1	1.05921685	-4.29669837	90	1	1.06825	0.977778;
	76	1	6.3	3.2	0	0	1	1.05309569	7.25595618	225	1	1.08889	0.986667;
	77	1	28.9	-5.2	0	0	1	1.03928196	-11.9271813	63	1	1.06349	0.936508;
	78	1	0	0	0	0	1	1.05538565	-21.1312879	63	1	1.07937	0.920635;
	79	1	0	0	0	0	1	1.02849409	-3.93099943	63	1	1.04762	0.952381;
	80	1	26.1	-1	0	0	1	1.07157163	-3.87605437	225	1	1.08889	1.00444;
	81	1	26.1	3.5	0	0	1	1.0715771	-3.8757243	225	1	1.08889	1.00444;
	82	1	9.8	-3.2	0	0	1	1.02853529	-11.2627887	63	1	1.06349	0.936508;
	83	1	85	46.2	0	0	1	1.06380749	-5.2126114	225	1	1.08889	1.00444;
	84	1	-1	-1.1	0	0	1	0.999291495	-11.8340374	63	1	1.06349	0.936508;
	85	1	2.3	-0.8	0	0	1	1.04254625	-13.6853843	63	1	1.06349	0.936508;
	86	1	30.3	-3.7	0	0	1	1.01684367	-21.569565	90	1	1.06667	0.977778;
	87	1	0	0	0	0	1	1.00372387	4.29332237	63	1	1.07937	0.952381;
	88	1	11.5	-3.8	0	0	1	1.03334332	-12.8134076	63	1	1.06349	0.936508;
	89	1	17.7	-4.9	0	0	1	1.05584517	-6.77448592	90	1	1.07778	0.977778;
	90	1	0.7	-0.3	0	0	1	0.921441728	-11.9265819	45	1	1	0.888889;
	91	1	0	0	0	0	1	0.921553908	-10.9877434	45	1	1	0.888889;
	92	1	24.7	0.4	0	0	1	1.03495223	-15.8003357	63	1	1.06349	0.968254;
	93	1	2.3	-2.5	0	0	1	0.951873078	-14.3372423	45	1	1	0.888889;
	94	1	13	-4.9	0	0	1	1.05414077	-6.74357514	90	1	1.06667	0.977778;
	95	1	38	3.8	0	0	1	1.02303941	-13.8353554	90	1	1.06667	0.977778;
	96	1	0.9	-0.6	0	0	1	1.02605991	-12.6406345	63	1	1.06349	0.936508;
	97	1	47	0.8	0	0	1	1.04296417	-20.2109086	63	1	1.07937	0.920635;
	98	1	6.6	-2.2	0	0	1	1.03653774	-7.55233651	63	1	1.07937	0.952381;
	99	1	21.9	3.2	0	0	1	0.999827188	-3.3283948	63	1	1.07937	0.952381;
	100	1	46.3	7.4	0	0	1	1.01522504	-17.007515	63	1	1.06349	0.936508;
	101	1	14	-1.5	0	0	1	0.999154668	-12.2999732	63	1	1.06349	0.936508;
	102	2	0	0	0	0	1	1.02	-18.6209647	63	1	1.07937	0.952381;
	103	1	13.2	-4	0	0	1	1.00799841	-1.94262978	63	1	1.07937	0.952381;
	104	1	0	0	0	0	1	1.04193666	0.582905078	225	1	1.08889	0.986667;
	105	1	28.5	-1.6	0	0	1	1.06969934	1.2713893	225	1	1.08889	0.888889;
	106	1	38.8	2.2	0	0	1	1.07961207	-2.19126604	90	1	1.1	0.944444;
	107	1	71.6	4.9	0	0	1	1.06152703	-23.4846261	225	1	1.08444	1.00889;
	108	1	7.9	-4.6	0	0	1	1.06751597	-2.50888532	90	1	1.07778	0.977778;
	109	1	60.6	7.8	0	0	1	1.03692292	-12.9051146	63	1	1.06349	0.936508;
	110	1	0	0	0	0	1	1.02640262	-9.24457503	225	1	1.08889	0.933333;
	111	1	34.2	-7.2	0	0	1	1.00939679	-21.0288391	63	1	1.06349	0.968254;
	112	1	0	0	0	0	1	1.03129628	-6.97314265	63	1	1.04762	0.952381;
	113	1	0	0	0	0	1	1.06926066	-4.6169658	225	1	1.08889	1.00444;
	114	1	11.5	-1	0	0	1	1.04825824	-17.1536068	63	1	1.06349	0.936508;
	115	1	0	0	0	0	1	1.05442399	-2.34666651	380	1	1.10526	1.05085;
	116	1	0	0	0	0	1	1.05442399	-2.34666651	380	1	1.10526	1.05085;
	117	1	13.2	-2.2	0	0	1	1.01652452	-13.6585408	63	1	1.07937	0.952381;
	118	1	2	0.8	0	0	1	1.06107447	-4.06588632	90	1	1.07012	0.977778;
	119	1	35.5	0.7	0	0	1	1.03096499	-6.36656905	63	1	1.06349	0.936508;
	120	1	29.9	-1.3	0	0	1	1.0183615	-17.0427938	63	1	1.06349	0.936508;
	121	1	15.3	3.7	0	0	1	1.04207236	-13.3661971	63	1	1.07937	0.920635;
	122	2	0	0	0	0	1	1.01023281	-2.94018226	63	1	1.07937	0.952381;
	123	1	9	2.7	0	0	1	1.00909716	-3.01117073	63	1	1.07937	0.952381;
	124	1	8.9	-4	0	0	1	1.04750138	-11.6680097	90	1	1.06667	0.977778;
	125	1	4.8	-3.1	0	0	1	1.02525611	-2.72101629	63	1	1.07937	0.952381;
	126	1	-0.3	0.5	0	0	1	1.04300005	-13.5091219	63	1	1.06349	0.936508;
	127	1	6.5	0.4	0	0	1	1.03153449	-8.41230447	63	1	1.04762	0.952381;
	128	1	13.9	5.6	0	0	1	1.02280368	-10.3474931	63	1	1.06349	0.968254;
	129	1	18.8	14.3	0	0	1	1.02022376	-9.12482832	63	1	1.06349	0.968254;
	130	1	0	0	0	0	1	1.04955401	-7.72887449	225	1	1.08444	1.00889;
	131	1	82	2	0	0	1	1.04615597	-17.1617258	225	1	1.08444	1.00889;
	132	2	11.9	0	0	0	1	1.04635909	-16.5735875	90	1	1.07778	0.922222;
	133	1	1.3	0.3	0	0	1	1.0196541	-6.99965518	63	1	1.04762	0.952381;
	134	1	71.7	15.7	0	0	1	1.06193956	-4.86461842	225	1	1.08889	1.00444;
	135	1	0	0	0	0	1	1.0692735	-5.87360986	225	1	1.08889	1.00444;
	136	1	18.8	2.3	0	0	1	1.02710602	-14.2438546	90	1	1.07778	0.977778;
	137	2	13.4	-9.1	0	0	1	1.01437397	-23.4835278	63	1	1.06349	0.968254;
	138	1	0	0	0	0	1	1.0089765	-19.9188541	150	1	1.08	0.966667;
	139	1	8.6	-1	0	0	1	1.03847792	-16.1605007	63	1	1.07937	0.920635;
	140	1	0	0	0	0	1	1.06127287	-13.4674455	225	1	1.08889	1;
	141	1	0	0	0	0	1	1.06994673	-10.7622678	380	1	1.10526	1.05263;
	142	1	15.8	1.3	0	0	1	0.99325714	-6.98228689	63	1	1.07937	0.952381;
	143	1	0	0	0	0	1	1.03348281	-3.41466745	225	1	1.08889	0.986667;
	144	1	0	0	0	-64	1	1.06620776	1.53977534	20	1	1.15	0.8;
	145	1	21.2	10	0	0	1	1.06705043	-1.5210455	90	1	1.11111	0.955556;
	146	1	25.6	6.2	0	0	1	1.07097109	2.14740517	225	1	1.08889	0.968889;
	147	1	0	0	0	0	1	1.07783429	4.83809492	380	1	1.10526	1;
	148	1	25	3.6	0	0	1	1.03680286	-16.5915549	63	1	1.06349	0.936508;
	149	1	6.3	2.2	0	0	1	1.02441337	-12.9787507	63	1	1.06349	0.936508;
	150	1	17.9	5.1	0	0	1	1.0145452	-14.0768357	90	1	1.06667	0.977778;
	151	1	41.9	5.6	0	0	1	1.02611783	-14.9968681	63	1	1.06349	0.936508;
	152	1	0	0	0	0	1	1.01211905	-23.157181	63	1	1.06349	0.968254;
	153	1	34.2	5.9	0	7.7	1	1.01207024	-21.8734783	63	1	1.06349	0.968254;
	154	1	20.4	0.6	0	0	1	1.03225006	-12.094489	63	1	1.06349	0.936508;
	155	1	0	0	0	0	1	1.05637989	-8.57739581	225	1	1.08889	0.933333;
	156	2	0	0	0	0	1	1.06006444	-22.8213609	63	1	1.07937	0.920635;
	157	1	0	0	0	0	1	1.01210108	-23.1589696	63	1	1.06349	0.968254;
	158	1	-0.1	-2.1	0	0	1	0.894021973	-15.4605136	45	1	1	0.888889;
	159	2	0	0	0	0	1	0.942719114	-12.8835402	45	1	1	0.888889;
	160	1	0	0	0	0	1	1.01267143	-17.2698994	63	1	1.06349	0.936508;
	161	1	29.5	2.3	0	0	1	1.0751895	2.41406549	225	1	1.08889	0.888889;
	162	1	31.5	7.4	0	0	1	1.074975	2.41091557	225	1	1.08889	0.888889;
	163	1	0.4	-1.6	0	0	1	1.03121258	-5.72492617	90	1	1.06667	0.977778;
	164	1	0	0	0	0	1	0.999091139	-2.30114203	63	1	1.07937	0.952381;
	165	1	0	0	0	0	1	0.999091139	-2.30114203	63	1	1.07937	0.952381;
	166	1	11.3	-3.9	0	0	1	1.06633384	-9.58681553	20	1	1.15	0.8;
	167	1	5.8	1.4	0	0	1	1.02745606	-13.2829704	90	1	1.06667	0.977778;
	168	1	7.8	-0.9	0	0	1	1.02810337	-13.3469984	90	1	1.06667	0.977778;
	169	1	0	0	0	0	1	1.06631164	-9.58190003	225	1	1.08642	1.00444;
	170	1	9.1	-1.1	0	0	1	1.0391185	-13.5434823	90	1	1.06667	0.977778;
	171	1	60	6.1	0	0	1	1.05280118	-8.40063331	90	1	1.07778	0.977778;
	172	1	21.4	-1.8	0	0	1	1.04464705	-10.0365037	90	1	1.07778	0.977778;
	173	1	0	0	0	0	1	1.07096511	-6.67524723	225	1	1.08889	1.00444;
	174	1	26.6	6.6	0	0	1	1.08721143	0.0358182167	90	1	1.08889	0.933333;
	175	1	35.7	-1.5	0	0	1	1.08796795	-2.22535226	90	1	1.11111	0.955556;
	176	1	0	0	0	0	1	1.04576999	-20.3308503	63	1	1.07937	0.920635;
	177	1	0	0	0	0	1	1.04279526	-17.824477	63	1	1.07937	0.920635;
	178	2	0	0	0	0	1	1.10160287	-18.7563087	150	1	1.1	0.9;
	179	1	0	0	0	0	1	1.0690417	-5.91562673	225	1	1.08889	1.00444;
	180	1	0	0	0	0	1	1.06904192	-5.91562794	225	1	1.08889	1.00444;
	181	1	0	0	0	-32	1	0.99119725	-8.53470679	20	1	1.15	0.8;
	182	1	0	0	0	-32	1	1.02430166	-8.48589573	20	1	1.15	0.8;
	183	1	0	0	0	0	1	1.03160587	-8.40582705	63	1	1.04762	0.952381;
	184	1	0	0	0	-80	1	1.06904042	-5.9156198	225	1	1.08889	1.00444;
	185	1	12.1	-5.9	0	0	1	1.05191388	-20.0350452	63	1	1.07937	0.920635;
	186	1	16	3.1	0	0	1	1.03506704	-8.11110884	63	1	1.06349	0.936508;
	187	1	5.4	0.3	0	0	1	1.01320513	-10.2398063	63	1	1.07937	0.952381;
	188	1	3	0.4	0	0	1	1.0438838	-3.6960987	90	1	1.07778	0.977778;
	189	1	21.9	2.4	0	0	1	0.987391019	-7.66838166	63	1	1.07937	0.952381;
	190	1	1.4	-0.7	0	0	1	1.03279504	-4.70739698	90	1	1.06667	0.977778;
	191	2	0	0	0	0	1	1.07478838	-21.6682314	63	1	1.07937	0.920635;
	192	1	12.5	1.1	0	0	1	1.05873671	-18.0345995	63	1	1.07937	0.920635;
	193	2	0	0	0	0	1	0.932029774	-14.2111998	45	1	1	0.888889;
	194	1	12.7	-1.3	0	0	1	1.04107717	-13.7956516	90	1	1.06667	0.977778;
	195	1	7.3	-1.4	0	0	1	1.05731468	-19.114955	63	1	1.07937	0.920635;
	196	1	7.7	5.3	0	0	1	1.06839555	-5.00319015	225	1	1.08889	1.00444;
	197	2	1.4	-3.2	0	0	1	1.071	-20.1412657	63	1	1.07937	0.920635;
	198	1	0	0	0	0	1	1.08949905	-4.92168126	63	1	1.09743	0.952381;
	199	1	0	0	0	0	1	1.08950053	-4.92172385	63	1	1.09743	0.952381;
	200	1	25	-4.9	0	0	1	1.04260621	-23.4317734	63	1	1.07937	0.920635;
...
];

%% generator data
%	bus	Pg	Qg	Qmax	Qmin	Vg	mBase	status	Pmax	Pmin	Pc1	Pc2	Qc1min	Qc1max	Qc2min	Qc2max	ramp_agc	ramp_10	ramp_30	ramp_q	apf
mpc.gen = [
	4	0	0	0	0	1.067	100	0	12	0	0	0	0	0	0	0	0	0	0	0	0;
	4	0	0	0	0	1.067	100	0	10	0	0	0	0	0	0	0	0	0	0	0	0;
	5	0	0	0	0	0.985	100	0	9.1	0	0	0	0	0	0	0	0	0	0	0	0;
	11	0	0	0	0	1.067	100	0	28	0	0	0	0	0	0	0	0	0	0	0	0;
	11	0	0	0	0	1.067	100	0	18	0	0	0	0	0	0	0	0	0	0	0	0;
	17	0	0	0	0	1.055	100	0	8.2	0	0	0	0	0	0	0	0	0	0	0	0;
	19	0	0	0	0	1.03	100	0	1.2	0	0	0	0	0	0	0	0	0	0	0	0;
	22	0	0	0	0	1.004	100	0	10	0	0	0	0	0	0	0	0	0	0	0	0;
	24	0	0	0	0	1.064	100	0	16.1	0	0	0	0	0	0	0	0	0	0	0	0;
	24	0	0	0	0	1.064	100	0	35.5	0	0	0	0	0	0	0	0	0	0	0	0;
	25	0	0	0	0	1.093	100	0	36	0	0	0	0	0	0	0	0	0	0	0	0;
	25	0	0	0	0	1.093	100	0	27.2	0	0	0	0	0	0	0	0	0	0	0	0;
	40	0	0	0	0	1.044	100	0	8	0	0	0	0	0	0	0	0	0	0	0	0;
	47	0	0	9.5	-9.5	0.994	100	0	16	0	0	0	0	0	0	0	0	0	0	0	0;
	47	0	0	9.5	-9.5	0.994	100	0	16	0	0	0	0	0	0	0	0	0	0	0	0;
	48	0	0	0	0	1.052	100	0	23	0	0	0	0	0	0	0	0	0	0	0	0;
	48	0	0	0	0	1.052	100	0	24	0	0	0	0	0	0	0	0	0	0	0	0;
	57	-11.8883921	10.6294403	1	0.9	1.059	100	1	13	0	0	0	0	0	0	0	0	0	0	0	0;
	64	0	0	0	0	1.073	100	0	24	0	0	0	0	0	0	0	0	0	0	0	0;
	64	0	0	0	0	1.073	100	0	27.6	0	0	0	0	0	0	0	0	0	0	0	0;
	69	0.47	0	0	0	1.013	100	1	30.04	0	0	0	0	0	0	0	0	0	0	0	0;
	70	0	0	0	0	1.007	100	0	23	0	0	0	0	0	0	0	0	0	0	0	0;
	85	0	0	0	0	1.044	100	0	6.68	0	0	0	0	0	0	0	0	0	0	0	0;
	86	0	0	0	0	1.018	100	0	9.2	0	0	0	0	0	0	0	0	0	0	0	0;
	102	10.34	-3.70804161	21	-9	1.02	100	1	46	0	0	0	0	0	0	0	0	0	0	0	0;
	122	0	0	5	-2	1.01	100	0	12	0	0	0	0	0	0	0	0	0	0	0	0;
	124	0	0	0	0	1.05	100	0	9	0	0	0	0	0	0	0	0	0	0	0	0;
	125	5.03	0	0	0	1.027	100	1	26	0	0	0	0	0	0	0	0	0	0	0	0;
	125	0	0	0	0	1.027	100	0	12	0	0	0	0	0	0	0	0	0	0	0	0;
	132	0	0	3	-3	1.047	100	0	17	0	0	0	0	0	0	0	0	0	0	0	0;
	132	0	0	1	-1	1.047	100	0	4	0	0	0	0	0	0	0	0	0	0	0	0;
	132	0	0	3	-3	1.047	100	0	14	0	0	0	0	0	0	0	0	0	0	0	0;
	132	0	0	3	-3	1.047	100	0	14	0	0	0	0	0	0	0	0	0	0	0	0;
	137	0	0	0.8	-0.8	1.007	100	0	18	0	0	0	0	0	0	0	0	0	0	0	0;
	137	0	0	0.8	-0.8	1.007	100	0	18	0	0	0	0	0	0	0	0	0	0	0	0;
	156	0	0	1.76	-1.76	1.063	100	0	5.3	0	0	0	0	0	0	0	0	0	0	0	0;
	159	0	0	10	-13	0.942	100	0	17.9	0	0	0	0	0	0	0	0	0	0	0	0;
	159	0	0	10	-13	0.942	100	0	17.9	0	0	0	0	0	0	0	0	0	0	0	0;
	178	0	0	10	-4	1.1	100	0	30	0	0	0	0	0	0	0	0	0	0	0	0;
	191	0	0	8	-8	1.075	100	0	11	0	0	0	0	0	0	0	0	0	0	0	0;
	191	0	0	2	-2	1.075	100	0	11	0	0	0	0	0	0	0	0	0	0	0	0;
	193	0	0	14	-14	0.922	100	0	30	0	0	0	0	0	0	0	0	0	0	0	0;
	195	0	0	0	0	1.058	100	0	23.5	0	0	0	0	0	0	0	0	0	0	0	0;
	197	0	3.58423104	1	0.9	1.071	100	1	15	0	0	0	0	0	0	0	0	0	0	0	0;
	197	0	3.58423104	1	0.9	1.071	100	1	15	0	0	0	0	0	0	0	0	0	0	0	0;
	220	0	0	0	0	1.02	100	0	11.94	0	0	0	0	0	0	0	0	0	0	0	0;
	227	0	0	2	0	1.1	100	0	6	0	0	0	0	0	0	0	0	0	0	0	0;
	230	0	0	0	0	0.991	100	0	7.5	0	0	0	0	0	0	0	0	0	0	0	0;
	239	0	0	0	0	1.062	100	0	33.5	0	0	0	0	0	0	0	0	0	0	0	0;
	239	0	0	0	0	1.062	100	0	24.3	0	0	0	0	0	0	0	0	0	0	0	0;
	241	0	0	0	0	1.029	100	0	8	0	0	0	0	0	0	0	0	0	0	0	0;
	241	0	0	0	0	1.029	100	0	36	0	0	0	0	0	0	0	0	0	0	0	0;
	249	0	0	2	0	0.968	100	0	1	0	0	0	0	0	0	0	0	0	0	0	0;
	249	0	0	10	-10	0.968	100	0	31	0	0	0	0	0	0	0	0	0	0	0	0;
	249	0	0	10	-10	0.968	100	0	31	0	0	0	0	0	0	0	0	0	0	0	0;
	249	0	0	10	-10	0.968	100	0	31	0	0	0	0	0	0	0	0	0	0	0	0;
	259	0	0	10	-10	1.059	100	0	26	0	0	0	0	0	0	0	0	0	0	0	0;
	259	0	0	10	-10	1.059	100	0	26	0	0	0	0	0	0	0	0	0	0	0	0;
	261	0	0	1	0.9	1.057	100	0	30	0	0	0	0	0	0	0	0	0	0	0	0;
	264	0	0	4	-4	1.078	100	0	8	0	0	0	0	0	0	0	0	0	0	0	0;
	272	0	0	0	0	1.03	100	0	12.6	0	0	0	0	0	0	0	0	0	0	0	0;
	285	0	0	6.1	-6.2	0.968	100	0	11.6	0	0	0	0	0	0	0	0	0	0	0	0;
	298	0	0	0	0	1.071	100	0	25.3	0	0	0	0	0	0	0	0	0	0	0	0;
	299	0	0	0	0	1.028	100	0	12	0	0	0	0	0	0	0	0	0	0	0	0;
	308	0	0	9	-9	1.046	100	0	15	0	0	0	0	0	0	0	0	0	0	0	0;
	315	10.1	0	0	0	1.02	100	1	25.8	0	0	0	0	0	0	0	0	0	0	0	0;
	315	26.1	0	0	0	1.02	100	1	49.6	0	0	0	0	0	0	0	0	0	0	0	0;
	320	0	0	0	0	1.059	100	0	0	-7	0	0	0	0	0	0	0	0	0	0	0;
	320	0	0	0	0	1.059	100	0	0	-7	0	0	0	0	0	0	0	0	0	0	0;
	322	0	0	0.1	-0.1	1.056	100	0	10.8	0	0	0	0	0	0	0	0	0	0	0	0;
	328	0	0	4	-4	1.036	100	0	11	0	0	0	0	0	0	0	0	0	0	0	0;
	335	0	0	13	-9	1.036	100	0	25	0	0	0	0	0	0	0	0	0	0	0	0;
	336	0	0	13	-9	1.04	100	0	25	0	0	0	0	0	0	0	0	0	0	0	0;
	339	0	0	5	-6	1.022	100	0	13	0	0	0	0	0	0	0	0	0	0	0	0;
	341	0	0	10	-10	1.079	100	0	21	0	0	0	0	0	0	0	0	0	0	0	0;
	341	0	0	0.1	-0.1	1.079	100	0	2	0	0	0	0	0	0	0	0	0	0	0	0;
	348	0	0	0	0	1.056	100	0	2.3	0	0	0	0	0	0	0	0	0	0	0	0;
	348	2.13	0	0	0	1.056	100	1	19.5	0	0	0	0	0	0	0	0	0	0	0	0;
	351	0	0	0	0	1.081	100	0	22	0	0	0	0	0	0	0	0	0	0	0	0;
	359	0	0	30	-30	1.035	100	0	30	0	0	0	0	0	0	0	0	0	0	0	0;
	360	0	0	0	0	0.988	100	0	12	0	0	0	0	0	0	0	0	0	0	0	0;
	360	0	0	0	0	0.988	100	0	12	0	0	0	0	0	0	0	0	0	0	0	0;
	367	119.17	43.2004963	59	-26	1.072	100	1	130	0	0	0	0	0	0	0	0	0	0	0	0;
	394	0	0	0	0	1.031	100	0	2.7	0	0	0	0	0	0	0	0	0	0	0	0;
	413	0	0	0	0	1.03	100	0	10	0	0	0	0	0	0	0	0	0	0	0	0;
	413	0	0	0	0	1.03	100	0	11.5	0	0	0	0	0	0	0	0	0	0	0	0;
	433	0	0	0	0	1.058	100	0	12	0	0	0	0	0	0	0	0	0	0	0	0;
	442	0	0	10.96	-11.99	1.065	100	0	34.25	0	0	0	0	0	0	0	0	0	0	0	0;
	449	0	0	8	-9	0.994	100	0	25	0	0	0	0	0	0	0	0	0	0	0	0;
	465	0	0	0	0	0.992	100	0	2.4	0	0	0	0	0	0	0	0	0	0	0	0;
	465	0	0	0	0	0.992	100	0	16	0	0	0	0	0	0	0	0	0	0	0	0;
	467	1	-2.09408995	6	-3	1.17	100	1	27	1	0	0	0	0	0	0	0	0	0	0	0;
	467	1	-2.09408995	6	-3	1.17	100	1	27	1	0	0	0	0	0	0	0	0	0	0	0;
	469	28.37	20.5196555	19	-10	1.029	100	1	48	1	0	0	0	0	0	0	0	0	0	0	0;
	473	0	0	6	-6	1.02	100	0	10	0	0	0	0	0	0	0	0	0	0	0	0;
	473	0	0	5.4	-5.4	1.02	100	0	9	0	0	0	0	0	0	0	0	0	0	0	0;
	482	0	0	17	-16	0.975	100	0	27	0	0	0	0	0	0	0	0	0	0	0	0;
	482	0	0	17	-16	0.975	100	0	27	0	0	0	0	0	0	0	0	0	0	0	0;
	482	0	0	17	-16	0.975	100	0	27	0	0	0	0	0	0	0	0	0	0	0	0;
	494	0	0	8	-17	1.049	100	0	23.4	0	0	0	0	0	0	0	0	0	0	0	0;
	511	0	0	2	-2	1.008	100	0	4	0	0	0	0	0	0	0	0	0	0	0	0;
	520	0	0	0	0	1.03	100	0	10	0	0	0	0	0	0	0	0	0	0	0	0;
	521	0	0	0	0	1.04	100	0	12	0	0	0	0	0	0	0	0	0	0	0	0;
	531	0	0	4.8	-4.8	1.001	100	0	8	0	0	0	0	0	0	0	0	0	0	0	0;
	531	0	0	4.8	-4.8	1.001	100	0	8	0	0	0	0	0	0	0	0	0	0	0	0;
	531	0	0	4.8	-4.8	1.001	100	0	8	0	0	0	0	0	0	0	0	0	0	0	0;
	537	0	0	0	0	1.026	100	0	12	0	0	0	0	0	0	0	0	0	0	0	0;
	537	0.02	0	0	0	1.026	100	1	24	0	0	0	0	0	0	0	0	0	0	0	0;
	546	0	5.37524533	2	1.9	1.066	100	1	9	0	0	0	0	0	0	0	0	0	0	0	0;
	549	0	0	2	0	1.057	100	0	12	0	0	0	0	0	0	0	0	0	0	0	0;
	571	0	0	0	0	0.985	100	0	12	0	0	0	0	0	0	0	0	0	0	0	0;
	571	3.94	0	0	0	0.985	100	1	30	0	0	0	0	0	0	0	0	0	0	0	0;
	571	0	0	0	0	0.985	100	0	11.5	0	0	0	0	0	0	0	0	0	0	0	0;
	584	0.27	8.75802642	7	-4	1.035	100	1	16	0	0	0	0	0	0	0	0	0	0	0	0;
	586	0	0	0	0	0.981	100	0	9	0	0	0	0	0	0	0	0	0	0	0	0;
	587	0	0	5.7	-5.7	0.997	100	0	9.5	0	0	0	0	0	0	0	0	0	0	0	0;
	590	0	0	0.1	-0.1	1.037	100	0	1	0	0	0	0	0	0	0	0	0	0	0	0;
	594	0	0	10	-10	1.045	100	0	21	0	0	0	0	0	0	0	0	0	0	0	0;
	601	0	0	1	-1	1.034	100	0	6.1	0	0	0	0	0	0	0	0	0	0	0	0;
	611	32.39	-3.69067807	45	-45	1.022	100	1	45	0	0	0	0	0	0	0	0	0	0	0	0;
	611	0	0	45	-45	1.022	100	0	45	0	0	0	0	0	0	0	0	0	0	0	0;
	613	0	0	0	0	1.017	100	0	12	0	0	0	0	0	0	0	0	0	0	0	0;
	613	0	0	0	0	1.017	100	0	12	0	0	0	0	0	0	0	0	0	0	0	0;
	613	0	0	0	0	1.017	100	0	12	0	0	0	0	0	0	0	0	0	0	0	0;
	614	0	0	0	0	1.03	100	0	35	0	0	0	0	0	0	0	0	0	0	0	0;
	614	0	0	0	0	1.03	100	0	11.5	0	0	0	0	0	0	0	0	0	0	0	0;
	626	0	0	8.3	-8.3	1.03	100	0	8.3	-8.3	0	0	0	0	0	0	0	0	0	0	0;
	635	0	0	4	-6	1.031	100	0	7.3	0	0	0	0	0	0	0	0	0	0	0	0;
	638	0	0	7	0	1.013	100	0	15	0	0	0	0	0	0	0	0	0	0	0	0;
	638	0	0	7	0	1.013	100	0	15	0	0	0	0	0	0	0	0	0	0	0	0;
	653	0	0	7	0	1.058	100	0	7	0	0	0	0	0	0	0	0	0	0	0	0;
	671	0	0	0	0	1.048	100	0	12	0	0	0	0	0	0	0	0	0	0	0	0;
	671	0	0	0	0	1.048	100	0	12	0	0	0	0	0	0	0	0	0	0	0	0;
	672	0	0	0	0	1.049	100	0	7.5	0	0	0	0	0	0	0	0	0	0	0	0;
	672	0.19	0	0	0	1.049	100	1	24	0	0	0	0	0	0	0	0	0	0	0	0;
	680	0	0	0	0	1.002	100	0	6.6	0	0	0	0	0	0	0	0	0	0	0	0;
	681	0	0	0	0	1.071	100	0	12	0	0	0	0	0	0	0	0	0	0	0	0;
	685	0	0	6	-5	0.89	100	0	9	0	0	0	0	0	0	0	0	0	0	0	0;
	685	0	0	6	-5	0.89	100	0	9	0	0	0	0	0	0	0	0	0	0	0	0;
	685	0	0	8	-5	0.89	100	0	11	0	0	0	0	0	0	0	0	0	0	0	0;
	685	0	0	8	-5	0.89	100	0	11	0	0	0	0	0	0	0	0	0	0	0	0;
	696	3.2	0	0	0	1.067	100	1	32.35	0	0	0	0	0	0	0	0	0	0	0	0;
	696	0	0	0	0	1.067	100	0	12	0	0	0	0	0	0	0	0	0	0	0	0;
	696	0	0	0	0	1.067	100	0	21	0	0	0	0	0	0	0	0	0	0	0	0;
	700	23.44	-9.49328239	15	-17	1	100	1	37	0	0	0	0	0	0	0	0	0	0	0	0;
	700	22.45	-9.49328239	15	-17	1	100	1	37	0	0	0	0	0	0	0	0	0	0	0	0;
	699	24.59	-9.58566147	15	-15	1	100	1	37	0	0	0	0	0	0	0	0	0	0	0	0;
	699	24.59	-9.58566147	15	-15	1	100	1	37	0	0	0	0	0	0	0	0	0	0	0	0;
	698	23.58	-7.09916899	15	-17	1.004	100	1	37	0	0	0	0	0	0	0	0	0	0	0	0;
	698	23.58	-7.09916899	15	-17	1.004	100	1	37	0	0	0	0	0	0	0	0	0	0	0	0;
	706	0	0	2	-2	0.891	100	0	4	0	0	0	0	0	0	0	0	0	0	0	0;
	706	0	0	2.5	-2.5	0.891	100	0	4	0	0	0	0	0	0	0	0	0	0	0	0;
	706	0	0	3	-3	0.891	100	0	5.7	0	0	0	0	0	0	0	0	0	0	0	0;
	706	0	0	6	-5	0.891	100	0	8.5	0	0	0	0	0	0	0	0	0	0	0	0;
	733	8.96	0	0	0	1.023	100	1	19.5	0	0	0	0	0	0	0	0	0	0	0	0;
	734	20.39	-12.6073077	18	-18	0.939	100	1	39	0	0	0	0	0	0	0	0	0	0	0	0;
	735	0	0	0	0	1.002	100	0	11.5	0	0	0	0	0	0	0	0	0	0	0	0;
	735	3	0	0	0	1.002	100	1	32	0	0	0	0	0	0	0	0	0	0	0	0;
	737	0	0	0	0	1.064	100	0	12	0	0	0	0	0	0	0	0	0	0	0	0;
	737	0	0	0	0	1.064	100	0	32	0	0	0	0	0	0	0	0	0	0	0	0;
	738	0	0	0.1	-0.1	1.049	100	0	5	0	0	0	0	0	0	0	0	0	0	0	0;
	745	0	0	4.4	-3.7	0.946	100	0	6.7	0	0	0	0	0	0	0	0	0	0	0	0;
	745	0	0	5	-3	0.946	100	0	5.6	0	0	0	0	0	0	0	0	0	0	0	0;
	746	8.27	-24.3039274	15	-16.55	0.938	100	1	26.6	0	0	0	0	0	0	0	0	0	0	0	0;
	747	1	3.80450434	2	-2	1.009	100	1	7	1	0	0	0	0	0	0	0	0	0	0	0;
	752	0	0	3	-3	0.967	100	0	5	-5	0	0	0	0	0	0	0	0	0	0	0;
	759	0	0	8	-8	1.072	100	0	23.5	0	0	0	0	0	0	0	0	0	0	0	0;
	761	0	0	0	0	1.036	100	0	6	0	0	0	0	0	0	0	0	0	0	0	0;
	762	0	0	0	0	1.034	100	0	6	0	0	0	0	0	0	0	0	0	0	0	0;
	761	7.58	-2.92859742	10	-6	1.036	100	1	37.5	0	0	0	0	0	0	0	0	0	0	0	0;
	762	6.25	0.692707607	10	-6	1.034	100	1	37.5	0	0	0	0	0	0	0	0	0	0	0	0;
	763	0	0	0.06	-0.06	0.601	100	0	0.6	0	0	0	0	0	0	0	0	0	0	0	0;
	763	0	0	2.61	-2.61	0.601	100	0	26.1	0	0	0	0	0	0	0	0	0	0	0	0;
	763	0	0	0.16	-0.16	0.601	100	0	1.6	0	0	0	0	0	0	0	0	0	0	0	0;
	763	0	0	0.11	-0.11	0.601	100	0	1.1	0	0	0	0	0	0	0	0	0	0	0	0;
	767	0	0	0	0	1.018	100	0	37.5	0	0	0	0	0	0	0	0	0	0	0	0;
	767	0	0	0	0	1.018	100	0	34	0	0	0	0	0	0	0	0	0	0	0	0;
	787	0	0	26	-26	0.943	100	0	8	0	0	0	0	0	0	0	0	0	0	0	0;
	787	0	0	26	-26	0.943	100	0	15	0	0	0	0	0	0	0	0	0	0	0	0;
	788	0	0	26	-26	0.97	100	0	19	0	0	0	0	0	0	0	0	0	0	0	0;
	802	17.39	-9.47541868	15	-17	1.001	100	1	31	0	0	0	0	0	0	0	0	0	0	0	0;
	802	19.35	-9.47541868	15	-17	1.001	100	1	31	0	0	0	0	0	0	0	0	0	0	0	0;
	803	19.95	-8.77586095	15	-17	1.003	100	1	31	0	0	0	0	0	0	0	0	0	0	0	0;
	803	19.28	-8.77586095	15	-17	1.003	100	1	31	0	0	0	0	0	0	0	0	0	0	0	0;
	804	19.11	-8.77856949	15	-17	1.003	100	1	31	0	0	0	0	0	0	0	0	0	0	0	0;
	804	19.11	-8.77856949	15	-17	1.003	100	1	31	0	0	0	0	0	0	0	0	0	0	0	0;
	808	0	0	0	0	1.042	100	0	40.8	0	0	0	0	0	0	0	0	0	0	0	0;
	816	14.78	-2.66540212	6	-9	1.021	100	1	32	1	0	0	0	0	0	0	0	0	0	0	0;
	816	0	0	6	-9	1.021	100	0	32	1	0	0	0	0	0	0	0	0	0	0	0;
	817	15.98	-0.67598057	6	-9	1.02	100	1	32	1	0	0	0	0	0	0	0	0	0	0	0;
	817	15.98	-0.67598057	6	-9	1.02	100	1	32	1	0	0	0	0	0	0	0	0	0	0	0;
	817	12.97	-0.67598057	6	-9	1.02	100	1	32	1	0	0	0	0	0	0	0	0	0	0	0;
	817	14.98	-0.67598057	6	-9	1.02	100	1	32	1	0	0	0	0	0	0	0	0	0	0	0;
	827	0	0	3	-3	1.058	100	0	13	0	0	0	0	0	0	0	0	0	0	0	0;
	827	0	0	3	-3	1.058	100	0	7	0	0	0	0	0	0	0	0	0	0	0	0;
	830	0	0	0	0	1.079	100	0	2.4	0	0	0	0	0	0	0	0	0	0	0	0;
	831	0	0	10	-10	1.068	100	0	27	0	0	0	0	0	0	0	0	0	0	0	0;
	832	0	0	10	-10	0.937	100	0	20	0	0	0	0	0	0	0	0	0	0	0	0;
	834	0	0	3.14	-3.43	1.063	100	0	9.8	0	0	0	0	0	0	0	0	0	0	0	0;
	834	0	0	1	0	1.063	100	0	5	0	0	0	0	0	0	0	0	0	0	0	0;
...
];

%% branch data
%	fbus	tbus	r	x	b	rateA	rateB	rateC	ratio	angle	status	angmin	angmax	Pf	Qf	Pt	Qt
mpc.branch = [
	4667	1	0.005726	0.010482	0	0	0	0	1	0	1	0	0	0.0000	1.0000	0.0001	-0.9999;
	5273	1	0.01284	0.025679	0	0	0	0	1	0	1	0	0	0.0002	-0.9996	-0.0001	0.9999;
	1689	2	0.005799	0.010615	0.0075	0	0	0	1	0	1	0	0	0.0000	-0.8012	-0.0000	-0.0000;
	1680	3	0.134039	0.309398	0.0035	0	0	0	1	0	1	0	0	12.5768	-1.2251	-12.3615	1.3797;
	2311	3	0.049131	0.133283	0.0015	0	0	0	1	0	1	0	0	-0.6613	0.0354	0.6615	-0.1797;
	696	4	0.025926	0.109136	0.0002	0	0	0	1	0	1	0	0	8.8764	-3.3770	-8.8558	3.4410;
	3961	4	0.05	0.126914	0.0006	0	0	0	1	0	1	0	0	-4.3341	2.0015	4.3442	-2.0441;
	5073	4	0.02321	0.097407	0.0016	0	0	0	1	0	1	0	0	29.4734	-6.2092	-29.2885	6.8031;
	4437	5	0.040564	0.113631	0.0013	0	0	0	1	0	1	0	0	11.0512	-0.8826	-11.0000	0.9000;
	2789	6	0.006047	0.020912	0.0222	0	0	0	1	0	1	0	0	13.0101	1.9665	-13.0000	-4.3000;
	2790	7	0.012472	0.032099	0.0061	0	0	0	1	0	1	0	0	1.0001	-0.8848	-1.0000	0.2000;
	2477	8	0.002607	0.017462	0.0324	540	540	540	1	0	1	0	0	0.4009	-8.0980	-0.4000	4.4000;
	473	9	0.053893	0.14258	0.0017	0	0	0	1	0	1	0	0	17.0444	0.1993	-16.9000	0.0000;
	11	10	0.000247	0.001235	0.0005	0	0	0	1	0	1	0	0	0.0000	-0.0483	0.0000	-0.0085;
	11	10	0.000247	0.001235	0.0002	0	0	0	1	0	1	0	0	0.0000	-0.0312	0.0000	0.0085;
	30	11	0.039753	0.100988	0.0047	0	0	0	1	0	1	0	0	-1.6312	-1.8627	1.6330	1.3346;
	2945	11	0.037654	0.096173	0.001	0	0	0	1	0	1	0	0	21.7893	-1.5599	-21.6330	1.8450;
	2189	12	0.014613	0.060721	0.0008	0	0	0	1	0	1	0	0	8.3885	3.9071	-8.3758	-3.9333;
	4039	12	0.034064	0.121139	0.0015	0	0	0	1	0	1	0	0	7.3472	3.2596	-7.3250	-3.3288;
	4041	12	0.000242	0.000442	0.0004	0	0	0	1	0	1	0	0	-15.7000	-7.3000	15.7007	7.2620;
	115	13	2.1e-05	0.000125	0.1386	737	737	737	1	0	1	0	0	-0.0000	0.0000	0.0000	-15.4095;
	2345	13	0.000145	0.001877	0.0635	2487	2487	2487	1	0	1	0	0	-275.6292	-32.8789	275.7296	27.1246;
	4597	13	0.000319	0.003234	0.0838	1841	1841	1841	1	0	1	0	0	275.9480	-10.8031	-275.7296	3.6944;
	116	13	2.1e-05	0.000125	0.1386	737	737	737	1	0	1	0	0	-0.0000	0.0000	0.0000	-15.4095;
	1229	14	0.04	0.134198	0.0274	0	0	0	1	0	1	0	0	-44.1487	1.2304	44.8828	-1.7316;
	2887	14	0.012222	0.052346	0.0026	0	0	0	1	0	1	0	0	-32.1095	2.3130	32.2255	-2.1006;
	4615	14	0.007284	0.045432	0.0024	0	0	0	1	0	1	0	0	94.5897	0.8522	-94.0029	2.5433;
	4976	14	0.059963	0.154222	0.0236	0	0	0	1	0	1	0	0	-32.9863	1.9126	33.6046	-2.8744;
	5259	14	0.018025	0.110988	0.0073	0	0	0	1	0	1	0	0	-9.1971	-0.6336	9.2111	-0.0804;
	2887	14	0.012222	0.052593	0.0032	0	0	0	1	0	1	0	0	-31.9689	2.2361	32.0840	-2.0914;
	4615	14	0.007284	0.044938	0.0024	0	0	0	1	0	1	0	0	95.6046	0.6985	-95.0051	2.7351;
	2921	15	0.037541	0.100529	0.0011	0	0	0	1	0	1	0	0	-28.3570	1.4933	28.6503	-0.8226;
	4150	15	0.090199	0.211388	0.0023	0	0	0	1	0	1	0	0	2.7148	-2.1163	-2.7050	1.8978;
	4477	15	0.09801	0.267574	0	0	0	0	1	0	1	0	0	26.5738	2.7910	-25.9453	-1.0751;
	252	16	0.071806	0.191484	0.0019	0	0	0	1	0	1	0	0	4.0894	-2.5097	-4.0747	2.3400;
	340	16	0.119174	0.284958	0.0044	0	0	0	1	0	1	0	0	6.2812	3.4813	-6.2253	-3.8400;
	5865	17	0.022346	0.061111	0.0029	0	0	0	1	0	1	0	0	11.2255	-0.8504	-11.2000	0.6000;
	3747	18	0.009383	0.019753	0	0	0	0	1	0	1	0	0	0.0000	0.0000	0.0000	0.0000;
	5121	19	0.000252	0.000504	0	0	0	0	1	0	1	0	0	1.0000	0.0000	-1.0000	-0.0000;
	3747	20	0.001975	0.004444	0	0	0	0	1	0	1	0	0	2.3079	-18.2822	-2.3000	18.3000;
	1359	21	0.036296	0.099012	0.0045	0	0	0	1	0	1	0	0	-9.4985	0.5272	9.5290	-0.9305;
	1605	21	0.032716	0.089136	0.0057	0	0	0	1	0	1	0	0	16.1095	-3.2306	-16.0290	2.8305;
	1849	22	0.138574	0.351474	0.0058	0	0	0	1	0	1	0	0	12.6907	0.5758	-12.4757	-0.6241;
	5050	22	0.094407	0.210456	0.0044	0	0	0	1	0	1	0	0	2.7316	0.3487	-2.7243	-0.7759;
	1161	23	0.047115	0.117158	0.001	0	0	0	1	0	1	0	0	23.7664	-0.7694	-23.5086	1.3082;
	2713	23	0.039557	0.120937	0.0132	0	0	0	1	0	1	0	0	21.7407	5.2246	-21.5484	-5.9945;
	3443	23	0.022676	0.062484	0.0007	0	0	0	1	0	1	0	0	-15.9000	-0.0000	15.9570	0.0863;
	145	24	0.064568	0.16716	0.0113	0	0	0	1	0	1	0	0	11.9245	-2.8429	-11.8411	1.7765;
	1287	24	0.048605	0.128481	0.0062	0	0	0	1	0	1	0	0	-2.1384	-1.7156	2.1411	1.0235;
	493	25	0.004815	0.02963	0.0016	0	0	0	1	0	1	0	0	28.5535	-13.9770	-28.5126	14.0388;
	2101	25	0.007309	0.04463	0.0073	0	0	0	1	0	1	0	0	18.0107	7.2082	-17.9874	-7.9388;
	613	26	0.034321	0.145802	0.0073	0	0	0	1	0	1	0	0	-38.0052	1.9765	38.4894	-0.6781;
	1872	26	0.004815	0.009753	0.0005	0	0	0	1	0	1	0	0	-15.0000	1.0000	15.0104	-1.0315;
	2613	26	0.049012	0.133704	0.0063	0	0	0	1	0	1	0	0	-22.1881	8.1410	22.4514	-8.0842;
	2938	26	0.04642	0.126543	0.0058	0	0	0	1	0	1	0	0	-8.9681	2.5179	9.0072	-3.0199;
	3357	26	0.046296	0.125926	0.006	0	0	0	1	0	1	0	0	-48.5232	8.9496	49.6261	-6.5719;
	4652	26	0.053704	0.136753	0.0065	0	0	0	1	0	1	0	0	-27.7146	2.2431	28.1202	-1.8850;
	2938	26	0.03358	0.120988	0.0062	0	0	0	1	0	1	0	0	-9.8403	1.9168	9.8729	-2.4500;
	536	27	0.006163	0.041067	0.0759	446	446	446	1	0	1	0	0	65.6313	-15.7399	-65.3906	8.7133;
	2358	27	0.000652	0.004369	0.0081	558	558	558	1	0	1	0	0	128.1255	2.1406	-128.0316	-2.4338;
	2694	28	0.050945	0.131922	0.0015	0	0	0	1	0	1	0	0	15.2600	-0.6654	-15.1491	0.7930;
	3913	28	0.058781	0.149005	0.0017	0	0	0	1	0	1	0	0	-14.6268	1.8244	14.7491	-1.6930;
	2900	29	0.067019	0.137566	0.0037	0	0	0	1	0	1	0	0	19.1878	-20.3082	-18.6655	21.0075;
	3339	29	0.032754	0.088939	0.0039	0	0	0	1	0	1	0	0	16.2283	10.7825	-16.1089	-10.8632;
	3339	29	0.030184	0.080096	0.0053	0	0	0	1	0	1	0	0	18.0606	11.7521	-17.9257	-11.9443;
	145	30	0.066049	0.187778	0.0099	0	0	0	1	0	1	0	0	20.0826	-5.3091	-19.8356	4.8878;
	1559	30	0.065062	0.133704	0.0062	0	0	0	1	0	1	0	0	-2.3070	5.4542	2.3292	-6.1139;
	4861	30	0.041728	0.106049	0.005	0	0	0	1	0	1	0	0	10.7146	-5.4213	-10.6625	4.9888;
	151	31	0.009574	0.03875	0.0114	0	0	0	1	0	1	0	0	-20.5843	-1.5885	20.6229	0.5418;
	3180	31	0.000171	0.000313	0.0002	0	0	0	1	0	1	0	0	-0.9000	-0.3000	0.9000	0.2788;
	3712	31	0.034266	0.09423	0.001	0	0	0	1	0	1	0	0	-32.8642	1.3345	33.2218	-0.4558;
	4763	31	0.006803	0.028219	0	0	0	0	1	0	1	0	0	-24.0650	-9.0459	24.1079	9.2236;
	151	31	0.008566	0.037541	0.0121	0	0	0	1	0	1	0	0	-21.3159	-2.0430	21.3530	0.9287;
	3749	32	0.009733	0.034089	0.0185	0	0	0	1	0	1	0	0	25.4643	0.4160	-25.4044	-2.1568;
	369	34	0.000277	0.002015	0.003	0	0	0	1	0	1	0	0	-87.4663	-58.6424	87.4950	58.5312;
	1020	33	0.00881	0.033995	0.0607	0	0	0	1	0	1	0	0	-30.5273	9.3853	30.6160	-15.6159;
	1162	33	0.004642	0.019832	0.0354	0	0	0	1	0	1	0	0	-106.0043	-23.5948	106.5159	21.9860;
	2591	34	0.008861	0.03506	0.0623	0	0	0	1	0	1	0	0	-67.9177	-29.6145	68.3708	24.8423;
	2714	34	0.006993	0.032869	0.0557	0	0	0	1	0	1	0	0	-43.6794	14.8498	43.8242	-20.1404;
	4768	33	0.002173	0.008731	0.0152	0	0	0	1	0	1	0	0	-37.8345	-6.2977	37.8639	4.7744;
	4878	34	0.00077	0.003121	0.0051	0	0	0	1	0	1	0	0	-29.7672	0.8070	29.7736	-1.3264;
	5700	33	0.004109	0.016138	0.0284	0	0	0	1	0	1	0	0	-61.1426	-26.5943	61.3106	24.2020;
	371	35	8.3e-05	0.000907	0.0202	1034	1034	1034	1	0	1	0	0	51.1500	-44.5694	-51.1466	42.3605;
	1114	35	0.000552	0.006726	0.0939	1786	1786	1786	1	0	1	0	0	69.2211	-50.9901	-69.1867	40.9919;
	2158	35	0.000512	0.008012	0.2455	2462	2462	2462	1	0	1	0	0	672.4307	13.0032	-670.3615	-8.0309;
	3153	35	0.001107	0.00918	0.1906	1644	1644	1644	1	0	1	0	0	-83.1233	18.3497	83.2002	-38.9405;
	370	36	6.2e-05	0.000741	0.0173	1095	1095	1095	1	0	1	0	0	47.0400	54.7412	-47.0371	-56.6450;
	2158	35	0.000512	0.008019	0.2455	2462	2462	2462	1	0	1	0	0	671.8446	13.0172	-669.7790	-8.0730;
	2158	36	0.001153	0.013123	0.1841	1433	1433	1433	1	0	1	0	0	215.2609	-25.4123	-214.7818	10.2369;
	5258	37	0.055933	0.120685	0.0013	0	0	0	1	0	1	0	0	-15.7626	9.9470	15.9464	-9.6881;
	5544	37	0.039053	0.084404	0.001	0	0	0	1	0	1	0	0	18.3801	-5.1049	-18.2464	5.2881;
	726	38	0.00252	0.006551	0.0001	0	0	0	1	0	1	0	0	7.0011	-1.0083	-7.0000	1.0000;
	1233	39	0.009877	0.042222	0.0021	0	0	0	1	0	1	0	0	38.3730	-7.9155	-38.2263	8.3256;
	5839	39	0.024815	0.063086	0.0029	0	0	0	1	0	1	0	0	-41.0169	10.6607	41.4526	-9.8511;
	1233	39	0.009877	0.042222	0.0021	0	0	0	1	0	1	0	0	38.3730	-7.9155	-38.2263	8.3256;
	2259	40	0.056173	0.142593	0.0066	0	0	0	1	0	1	0	0	15.0171	-7.2662	-14.8750	6.9131;
	4615	40	0.034444	0.109012	0.0076	0	0	0	1	0	1	0	0	16.9306	6.9136	-16.8250	-7.4131;
	432	41	0.000158	0.000672	0.0719	0	0	0	1	0	1	0	0	7.7001	-8.3303	-7.7000	-0.0665;
	3975	41	4.5e-05	8.9e-05	0.002	0	0	0	1	0	1	0	0	-7.7000	-0.3000	7.7000	0.0665;
	1488	42	0.01096	0.020063	0.009	0	0	0	1	0	1	0	0	0.0198	-0.3115	-0.0198	-0.7685;
	2775	42	0.002268	0.008818	0.0099	0	0	0	1	0	1	0	0	-0.0198	-1.9562	0.0198	0.7685;
	2734	43	0.001481	0.006296	0.0039	0	0	0	1	0	1	0	0	3.4002	2.3688	-3.4000	-2.8000;
	3506	44	0.050617	0.137012	0.009	0	0	0	1	0	1	0	0	21.6733	-5.8260	-21.4254	5.5834;
	4347	44	0.074326	0.194507	0.0021	0	0	0	1	0	1	0	0	-8.9436	5.5843	9.0254	-5.5834;
	5124	45	0.000247	0.000741	0	0	0	0	1	0	1	0	0	3.0000	2.1001	-3.0000	-2.1000;
	1089	46	0.049131	0.134039	0.001	0	0	0	1	0	1	0	0	-0.0900	-0.6698	0.0902	0.5684;
	2202	46	0.033258	0.090955	0.001	0	0	0	1	0	1	0	0	2.1947	0.2741	-2.1931	-0.3719;
	3323	46	0.067437	0.123442	0.001	0	0	0	1	0	1	0	0	-2.1000	0.1000	2.1029	-0.1965;
	1089	47	0.037289	0.118166	0.001	0	0	0	1	0	1	0	0	0.0000	-0.1018	0.0000	-0.0000;
	5392	48	0.021358	0.057037	0.0005	0	0	0	1	0	1	0	0	34.2244	1.8439	-34.0000	-1.3000;
	1227	49	0.071303	0.180902	0.0021	0	0	0	1	0	1	0	0	-0.8842	-1.9854	0.8871	1.7690;
	2353	49	0.071554	0.18191	0.0021	0	0	0	1	0	1	0	0	7.8281	-0.8522	-7.7871	0.7310;
	473	50	0.028193	0.104535	0.0013	0	0	0	1	0	1	0	0	-64.3184	0.3653	65.3940	3.4793;
	1683	50	0.055404	0.171429	0.01	0	0	0	1	0	1	0	0	-16.7000	-3.4000	16.8452	2.7397;
	3572	50	0.010834	0.071554	0.001	0	0	0	1	0	1	0	0	-24.2185	-3.4384	24.2766	3.7106;
	4649	50	0.013857	0.030234	0.0003	0	0	0	1	0	1	0	0	-31.7897	-3.1395	31.9167	3.3830;
	3572	50	0.011414	0.070648	0.0009	0	0	0	1	0	1	0	0	-24.5237	-3.2281	24.5864	3.5152;
	4649	50	0.013757	0.030108	0.0003	0	0	0	1	0	1	0	0	-31.9361	-3.1913	32.0633	3.4363;
	1200	51	0.00478	0.028622	0.0547	455	455	455	1	0	1	0	0	105.7101	12.1988	-105.2198	-15.2975;
	1201	51	0.00478	0.028583	0.0547	455	455	455	1	0	1	0	0	90.6429	16.2074	-90.2742	-20.0399;
	167	52	0.01284	0.032716	0.0015	0	0	0	1	0	1	0	0	58.1013	-5.6959	-57.6869	6.5944;
	5518	52	0.014198	0.036049	0.0016	0	0	0	1	0	1	0	0	-51.5100	9.8847	51.8869	-9.0944;
	3367	53	0.005291	0.021668	0.0003	0	0	0	1	0	1	0	0	0.2000	-0.3313	-0.2000	0.3000;
	2779	54	0.01358	0.047654	0.0023	0	0	0	1	0	1	0	0	0.9002	-1.0511	-0.9000	0.8000;
	376	55	0.000257	0.000514	0.0294	0	0	0	1	0	1	0	0	30.1021	2.0434	-30.1000	-5.4000;
	2703	56	0.000257	0.002153	0.2147	452	452	452	1	0	1	0	0	-120.4037	-25.4583	120.4379	2.0312;
	3445	56	0.000277	0.000869	0.0931	481	481	481	1	0	1	0	0	162.7042	-1.7537	-162.6379	-8.3312;
	5125	57	0.000756	0.00252	0	0	0	0	1	0	1	0	0	11.8901	-10.6237	-11.8884	10.6294;
	3408	58	0.000237	0.00083	0.1863	0	0	0	1	0	1	0	0	103.9362	11.3552	-103.9128	-32.5680;
	3584	58	0.000178	0.000612	0.1377	0	0	0	1	0	1	0	0	3.6875	-19.5001	-3.6872	3.7680;
	142	59	0.030486	0.076342	0.002	0	0	0	1	0	1	0	0	8.3141	1.0671	-8.2923	-1.2092;
	1659	59	0.011086	0.024691	0.0015	0	0	0	1	0	1	0	0	-3.0912	0.0463	3.0923	-0.1908;
	2487	60	0.044344	0.170572	0.0021	0	0	0	1	0	1	0	0	9.3566	2.4935	-9.3154	-2.5463;
	3544	60	0.036709	0.151776	0.0017	0	0	0	1	0	1	0	0	-9.2809	-2.5722	9.3154	2.5463;
	2236	61	0.017788	0.048551	0.0006	0	0	0	1	0	1	0	0	20.5844	5.6099	-20.5039	-5.4505;
	2645	61	0.057521	0.145251	0.0017	0	0	0	1	0	1	0	0	9.1440	-0.3994	-9.0961	0.3505;
	2054	62	0.014109	0.057949	0.0029	0	0	0	1	0	1	0	0	7.4532	-8.5878	-7.4351	8.3732;
	2966	62	0.007055	0.02973	0.0014	0	0	0	1	0	1	0	0	-7.4264	8.2700	7.4351	-8.3732;
	374	63	0.024263	0.065911	0.0007	0	0	0	1	0	1	0	0	-1.2762	0.3284	1.2766	-0.3964;
	3100	63	0.020912	0.059209	0.0016	0	0	0	1	0	1	0	0	14.1190	1.5651	-14.0766	-1.6036;
	146	64	0.002568	0.011753	0.0203	424	424	424	1	0	1	0	0	37.6691	-5.8882	-37.6369	3.7084;
	5135	64	0.002568	0.011615	0.0228	0	0	0	1	0	1	0	0	9.5653	0.4037	-9.5631	-3.0084;
	4627	65	0.006299	0.033585	0.0599	0	0	0	1	0	1	0	0	5.0068	-4.6184	-5.0051	-1.4447;
	4627	65	0.006299	0.033661	0.06	0	0	0	1	0	1	0	0	4.9966	-4.6179	-4.9949	-1.4553;
	1552	66	0.102293	0.226757	0.0025	0	0	0	1	0	1	0	0	-9.9000	5.0000	10.0154	-5.0196;
	2300	66	0.177551	0.405291	0.0046	0	0	0	1	0	1	0	0	21.0951	-9.4676	-20.2328	10.9321;
	3267	66	0.088264	0.161566	0.0017	0	0	0	1	0	1	0	0	0.8930	-3.5548	-0.8827	3.3875;
	3049	67	0.007307	0.014613	0.0002	0	0	0	1	0	1	0	0	0.0000	-0.0215	-0.0000	-0.0000;
	2202	68	0.043336	0.11867	0.001	0	0	0	1	0	1	0	0	-15.6947	-1.2741	15.7998	1.4588;
	2896	68	0.067775	0.139834	0.001	0	0	0	1	0	1	0	0	3.6364	-0.3062	-3.6277	0.2199;
	4557	68	0.047367	0.16125	0.0021	0	0	0	1	0	1	0	0	18.7071	-4.6430	-18.5385	4.9983;
	5178	68	0.004031	0.016629	0.001	0	0	0	1	0	1	0	0	34.7803	-0.0339	-34.7335	0.1229;
	4630	69	0.073066	0.205089	0.0022	0	0	0	1	0	1	0	0	14.0764	-3.0149	-13.9300	3.2000;
	5126	70	4.8e-05	8.8e-05	0.0001	0	0	0	1	0	1	0	0	8.7000	0.5900	-8.7000	-0.6000;
	2173	71	0.000252	0.00252	0.0008	0	0	0	1	0	1	0	0	34.0000	8.3733	-33.9971	-8.4284;
	3163	71	0.030738	0.088687	0.0169	0	0	0	1	0	1	0	0	7.7066	-1.2955	-7.6893	-0.4394;
	5127	71	0.006551	0.016377	0.0171	0	0	0	1	0	1	0	0	4.9699	-0.5868	-4.9684	-1.2125;
	3163	71	0.025195	0.07483	0.0204	0	0	0	1	0	1	0	0	9.1653	-1.4753	-9.1452	-0.6197;
	3766	72	9.9e-05	0.00077	0.078	0	0	0	1	0	1	0	0	-56.6971	-18.9885	56.7000	9.8034;
	3766	73	9.9e-05	0.00077	0.077	0	0	0	1	0	1	0	0	-57.6970	-18.8313	57.7000	9.7650;
	5135	74	0.000514	0.003437	0.0061	0	0	0	1	0	1	0	0	-9.5653	-0.4037	9.5657	-0.2933;
	5155	74	0.005476	0.036879	0.1255	522	522	522	1	0	1	0	0	-42.1229	-7.1404	42.2080	-6.6535;
	146	74	0.000514	0.003457	0.0061	418	418	418	1	0	1	0	0	88.9102	-16.1008	-88.8737	15.6468;
	4988	75	0.017531	0.046914	0.0023	0	0	0	1	0	1	0	0	10.1450	0.3189	-10.1289	-0.5344;
	2091	75	0.005309	0.014321	0.0006	0	0	0	1	0	1	0	0	9.1751	0.8090	-9.1711	-0.8656;
	3101	76	0.003477	0.01118	0.0187	0	0	0	1	0	1	0	0	-11.5879	-9.4159	11.5943	7.3653;
	3852	76	0.000612	0.003121	0.0152	0	0	0	1	0	1	0	0	17.8966	8.8906	-17.8943	-10.5653;
	2352	77	0.013857	0.035525	0.0004	0	0	0	1	0	1	0	0	29.0106	-4.9596	-28.9000	5.2000;
	243	78	0.002771	0.008314	0.0083	0	0	0	1	0	1	0	0	1.0000	-0.0244	-1.0000	-0.9000;
	4582	78	0.000151	0.000302	0	0	0	0	1	0	1	0	0	-1.0000	-0.9000	1.0000	0.9000;
	632	79	0.010758	0.02187	0.0071	0	0	0	1	0	1	0	0	-14.5000	0.3500	14.5215	-1.0563;
	1877	79	0.003779	0.014613	0.0198	0	0	0	1	0	1	0	0	31.4700	15.6176	-31.4250	-17.5451;
	2420	79	0.008314	0.017057	0.024	0	0	0	1	0	1	0	0	-4.8000	1.3000	4.8023	-3.8340;
	4102	79	0.000252	0.001764	0.0043	0	0	0	1	0	1	0	0	1.2208	-10.4891	-1.2205	10.0361;
	632	79	0.010758	0.02187	0.0071	0	0	0	1	0	1	0	0	-14.5000	0.3500	14.5215	-1.0563;
	4101	79	0.000302	0.001562	0.0037	0	0	0	1	0	1	0	0	1.2003	-13.8443	-1.1998	13.4557;
	4103	81	2.4e-05	0.000144	0.0213	701	701	701	1	0	1	0	0	26.1001	1.0550	-26.1000	-3.5000;
	4103	80	7.1e-05	0.000162	0.0162	0	0	0	1	0	1	0	0	26.1004	-2.8592	-26.1000	1.0000;
	676	82	0.068027	0.173091	0.002	0	0	0	1	0	1	0	0	-26.2090	-0.2106	26.6674	1.1691;
	799	82	0.027211	0.068783	0.001	0	0	0	1	0	1	0	0	1.7805	-2.0029	-1.7787	1.9017;
	2079	82	0.03099	0.202822	0.002	0	0	0	1	0	1	0	0	35.0412	1.9638	-34.6886	0.1292;
	3503	83	0.000257	0.001165	0.002	405	405	405	1	0	1	0	0	85.0212	46.0698	-85.0000	-46.2000;
	2137	84	0.045603	0.11741	0.001	0	0	0	1	0	1	0	0	29.4525	8.4378	-29.0421	-7.4833;
	3822	84	0.008566	0.024691	0	0	0	0	1	0	1	0	0	-29.9584	-8.3419	30.0421	8.5833;
	5130	85	0.047317	0.131595	0.0015	0	0	0	1	0	1	0	0	2.3026	-0.9557	-2.3000	0.8000;
	2821	86	0.040494	0.128889	0.0064	0	0	0	1	0	1	0	0	29.6298	-5.4407	-29.2789	5.8929;
	3530	86	0.037778	0.097037	0.0045	0	0	0	1	0	1	0	0	1.0229	1.7311	-1.0211	-2.1929;
	3791	87	0.032071	0.058705	0.0006	0	0	0	1	0	1	0	0	-3.6475	-1.1992	3.6522	1.1474;
	4371	87	0.062887	0.204157	0.002	0	0	0	1	0	1	0	0	7.3457	2.2112	-7.3094	-2.2965;
	3791	87	0.032026	0.058624	0.0006	0	0	0	1	0	1	0	0	-3.6525	-1.2008	3.6572	1.1491;
	1624	88	0.075838	0.224742	0.0027	0	0	0	1	0	1	0	0	2.1043	0.1721	-2.1011	-0.4516;
	1713	88	0.028471	0.089695	0.001	0	0	0	1	0	1	0	0	-0.0000	0.0000	0.0000	-0.1068;
	3663	88	0.080373	0.255732	0.003	0	0	0	1	0	1	0	0	5.4376	-4.7456	-5.3990	4.5505;
	5588	88	0.000252	0.000504	0	0	0	0	1	0	1	0	0	4.0000	0.1922	-4.0000	-0.1921;
	2507	89	0.033531	0.087235	0.0166	0	0	0	1	0	1	0	0	14.7579	-10.6423	-14.6633	9.0438;
	4252	89	0.03037	0.08321	0.0039	0	0	0	1	0	1	0	0	3.0434	3.7258	-3.0367	-4.1438;
	5131	90	0.000444	0.001136	0	0	0	0	1	0	1	0	0	0.7000	-0.3000	-0.7000	0.3000;
	3747	91	0.057284	0.130864	0	0	0	0	1	0	1	0	0	0.0000	0.0000	0.0000	0.0000;
	649	92	0.054749	0.157445	0.0027	0	0	0	1	0	1	0	0	21.1348	-1.3697	-20.9095	1.7259;
	4079	92	0.038549	0.103049	0.0012	0	0	0	1	0	1	0	0	-10.0000	1.0000	10.0366	-1.0304;
...
];

%%-----  OPF Data  -----%%
%% generator cost data
%	1	startup	shutdown	n	x1	y1	...	xn	yn
%	2	startup	shutdown	n	c(n-1)	...	c0
mpc.gencost = [
	2	0	0	3	0	2	0;
	2	0	0	3	0	2	0;
	2	0	0	3	0	2	0;
	2	0	0	3	0	2	0;
	2	0	0	3	0	2	0;
	2	0	0	3	0	2	0;
	2	0	0	3	0	2	0;
	2	0	0	3	0	2	0;
	2	0	0	3	0	2	0;
	2	0	0	3	0	2	0;
	2	0	0	3	0	2	0;
	2	0	0	3	0	2	0;
	2	0	0	3	0	2	0;
	2	0	0	3	0	2	0;
	2	0	0	3	0	2	0;
	2	0	0	3	0	2	0;
	2	0	0	3	0	2	0;
	2	0	0	3	0	2	0;
	2	0	0	3	0	2	0;
	2	0	0	3	0	2	0;
	2	0	0	3	0	1	0;
	2	0	0	3	0	2	0;
	2	0	0	3	0	2	0;
	2	0	0	3	0	2	0;
	2	0	0	3	0	1	0;
	2	0	0	3	0	2	0;
	2	0	0	3	0	2	0;
	2	0	0	3	0	1	0;
	2	0	0	3	0	2	0;
	2	0	0	3	0	2	0;
	2	0	0	3	0	2	0;
	2	0	0	3	0	2	0;
	2	0	0	3	0	2	0;
	2	0	0	3	0	2	0;
	2	0	0	3	0	2	0;
	2	0	0	3	0	2	0;
	2	0	0	3	0	2	0;
	2	0	0	3	0	2	0;
	2	0	0	3	0	2	0;
	2	0	0	3	0	2	0;
	2	0	0	3	0	2	0;
	2	0	0	3	0	2	0;
	2	0	0	3	0	2	0;
	2	0	0	3	0	2	0;
	2	0	0	3	0	2	0;
	2	0	0	3	0	2	0;
	2	0	0	3	0	2	0;
	2	0	0	3	0	2	0;
	2	0	0	3	0	2	0;
	2	0	0	3	0	2	0;
	2	0	0	3	0	2	0;
	2	0	0	3	0	2	0;
	2	0	0	3	0	2	0;
	2	0	0	3	0	2	0;
	2	0	0	3	0	2	0;
	2	0	0	3	0	2	0;
	2	0	0	3	0	2	0;
	2	0	0	3	0	2	0;
	2	0	0	3	0	2	0;
	2	0	0	3	0	2	0;
	2	0	0	3	0	2	0;
	2	0	0	3	0	2	0;
	2	0	0	3	0	2	0;
	2	0	0	3	0	2	0;
	2	0	0	3	0	2	0;
	2	0	0	3	0	1	0;
	2	0	0	3	0	1	0;
	2	0	0	3	0	2	0;
	2	0	0	3	0	2	0;
	2	0	0	3	0	2	0;
	2	0	0	3	0	2	0;
	2	0	0	3	0	2	0;
	2	0	0	3	0	2	0;
	2	0	0	3	0	2	0;
	2	0	0	3	0	2	0;
	2	0	0	3	0	2	0;
	2	0	0	3	0	2	0;
	2	0	0	3	0	1	0;
	2	0	0	3	0	2	0;
	2	0	0	3	0	2	0;
	2	0	0	3	0	2	0;
	2	0	0	3	0	2	0;
	2	0	0	3	0	1	0;
	2	0	0	3	0	2	0;
	2	0	0	3	0	2	0;
	2	0	0	3	0	2	0;
	2	0	0	3	0	2	0;
	2	0	0	3	0	2	0;
	2	0	0	3	0	2	0;
	2	0	0	3	0	2	0;
	2	0	0	3	0	2	0;
	2	0	0	3	0	1	0;
	2	0	0	3	0	1	0;
	2	0	0	3	0	1	0;
	2	0	0	3	0	2	0;
	2	0	0	3	0	2	0;
	2	0	0	3	0	2	0;
	2	0	0	3	0	2	0;
	2	0	0	3	0	2	0;
	2	0	0	3	0	2	0;
	2	0	0	3	0	2	0;
	2	0	0	3	0	2	0;
	2	0	0	3	0	2	0;
	2	0	0	3	0	2	0;
	2	0	0	3	0	2	0;
	2	0	0	3	0	2	0;
	2	0	0	3	0	2	0;
	2	0	0	3	0	1	0;
	2	0	0	3	0	2	0;
	2	0	0	3	0	2	0;
	2	0	0	3	0	2	0;
	2	0	0	3	0	1	0;
	2	0	0	3	0	2	0;
	2	0	0	3	0	1	0;
	2	0	0	3	0	2	0;
	2	0	0	3	0	2	0;
	2	0	0	3	0	2	0;
	2	0	0	3	0	2	0;
	2	0	0	3	0	2	0;
	2	0	0	3	0	1	0;
	2	0	0	3	0	2	0;
	2	0	0	3	0	2	0;
	2	0	0	3	0	2	0;
	2	0	0	3	0	2	0;
	2	0	0	3	0	2	0;
	2	0	0	3	0	2	0;
	2	0	0	3	0	2	0;
	2	0	0	3	0	2	0;
	2	0	0	3	0	2	0;
	2	0	0	3	0	2	0;
	2	0	0	3	0	2	0;
	2	0	0	3	0	2	0;
	2	0	0	3	0	2	0;
	2	0	0	3	0	2	0;
	2	0	0	3	0	1	0;
	2	0	0	3	0	2	0;
	2	0	0	3	0	2	0;
	2	0	0	3	0	2	0;
	2	0	0	3	0	2	0;
	2	0	0	3	0	2	0;
	2	0	0	3	0	2	0;
	2	0	0	3	0	1	0;
	2	0	0	3	0	2	0;
	2	0	0	3	0	2	0;
	2	0	0	3	0	1	0;
	2	0	0	3	0	1	0;
	2	0	0	3	0	1	0;
	2	0	0	3	0	1	0;
	2	0	0	3	0	1	0;
	2	0	0	3	0	1	0;
	2	0	0	3	0	2	0;
	2	0	0	3	0	2	0;
	2	0	0	3	0	2	0;
	2	0	0	3	0	2	0;
	2	0	0	3	0	1	0;
	2	0	0	3	0	1	0;
	2	0	0	3	0	2	0;
	2	0	0	3	0	1	0;
	2	0	0	3	0	2	0;
	2	0	0	3	0	2	0;
	2	0	0	3	0	2	0;
	2	0	0	3	0	2	0;
	2	0	0	3	0	2	0;
	2	0	0	3	0	1	0;
	2	0	0	3	0	1	0;
	2	0	0	3	0	2	0;
	2	0	0	3	0	2	0;
	2	0	0	3	0	2	0;
	2	0	0	3	0	2	0;
	2	0	0	3	0	1	0;
	2	0	0	3	0	1	0;
	2	0	0	3	0	2	0;
	2	0	0	3	0	2	0;
	2	0	0	3	0	2	0;
	2	0	0	3	0	2	0;
	2	0	0	3	0	2	0;
	2	0	0	3	0	2	0;
	2	0	0	3	0	2	0;
	2	0	0	3	0	2	0;
	2	0	0	3	0	2	0;
	2	0	0	3	0	1	0;
	2	0	0	3	0	1	0;
	2	0	0	3	0	1	0;
	2	0	0	3	0	1	0;
	2	0	0	3	0	1	0;
	2	0	0	3	0	1	0;
	2	0	0	3	0	2	0;
	2	0	0	3	0	1	0;
	2	0	0	3	0	2	0;
	2	0	0	3	0	1	0;
	2	0	0	3	0	1	0;
	2	0	0	3	0	1	0;
	2	0	0	3	0	1	0;
	2	0	0	3	0	2	0;
	2	0	0	3	0	2	0;
	2	0	0	3	0	2	0;
	2	0	0	3	0	2	0;
	2	0	0	3	0	2	0;
	2	0	0	3	0	2	0;
	2	0	0	3	0	2	0;
...
];
